[General]
cmdenv-express-mode = true
cmdenv-autoflush = true
cmdenv-status-frequency = 1s
debugger-attach-on-error = false
debugger-attach-on-startup = false
tkenv-extra-stack = 48KiB
**.cmdenv-log-level = info

ned-path = .
image-path = ../../images

network = ManhattanSimulation.MCManhattanScenario
#########################################################
#            Simulation parameters                       #
##########################################################
debug-on-errors = true
print-undisposed = false

sim-time-limit = 100s

**.scalar-recording = true
**.vector-recording = true

**.debug = false
**.coreDebug = false

*.playgroundSizeX = 1000m
*.playgroundSizeY = 1000m
*.playgroundSizeZ = 100m


##########################################################
# Annotation parameters                                  #
##########################################################
*.annotations.draw = true



##########################################################
#            TraCIScenarioManager parameters             #
##########################################################
*.manager.updateInterval = 1s
*.manager.host = "localhost"
*.manager.port = 9998
*.manager.autoShutdown = true
*.manager.launchConfig = xmldoc("manhattan.launchd.xml")

##########################################################
#                       RSU SETTINGS                     #
#                                                        #
#                                                        #
##########################################################
*.rsu[0].mobility.x = 616
*.rsu[0].mobility.y = 23
*.rsu[0].mobility.z = 0


*.rsu[1].mobility.x = 16
*.rsu[1].mobility.y = 23
*.rsu[1].mobility.z = 0


*.rsu[2].mobility.x = 216
*.rsu[2].mobility.y = 23
*.rsu[2].mobility.z = 0

*.rsu[3].mobility.x = 416
*.rsu[3].mobility.y = 23
*.rsu[3].mobility.z = 0







*.rsu[*].applType = "CNNApp.CNNAppRSU"
*.rsu[*].appl.headerLength = 80 bit
*.rsu[*].appl.sendBeacons = false
*.rsu[*].appl.dataOnSch = false
*.rsu[*].appl.beaconInterval = 1s
*.rsu[*].appl.beaconUserPriority = 7
*.rsu[*].appl.dataUserPriority = 5
*.rsu[0].appl.rsuId = 0
*.rsu[1].appl.rsuId = 1
*.rsu[2].appl.rsuId = 2
*.rsu[3].appl.rsuId = 3

##########################################################
#            11p specific parameters                     #
#                                                        #
#                    NIC-Settings                        #
##########################################################
*.connectionManager.sendDirect = true
*.connectionManager.maxInterfDist = 2600m
*.connectionManager.drawMaxIntfDist = false

*.**.nic.mac1609_4.useServiceChannel = false

*.**.nic.mac1609_4.txPower = 20mW
*.**.nic.mac1609_4.bitrate = 6Mbps
*.**.nic.phy80211p.sensitivity = -89dBm

*.**.nic.phy80211p.useThermalNoise = true
*.**.nic.phy80211p.thermalNoise = -110dBm

*.**.nic.phy80211p.decider = xmldoc("config.xml")
*.**.nic.phy80211p.analogueModels = xmldoc("config.xml")
*.**.nic.phy80211p.usePropagationDelay = true

*.**.nic.phy80211p.antenna = xmldoc("antenna.xml", "/root/Antenna[@id='monopole']")

##########################################################
#                    WaveAppLayer                        #
##########################################################
*.node[*].applType = "CNNApp.CNNAppCar"
*.node[*].appl.headerLength = 80 bit
*.node[*].appl.sendBeacons = false
*.node[*].appl.dataOnSch = false
*.node[*].appl.beaconInterval = 1s

##########################################################
#                      Mobility                          #
##########################################################
*.node[*].veinsmobilityType.debug = true
*.node[*].veinsmobility.x = -1
*.node[*].veinsmobility.y = -1
*.node[*].veinsmobility.z = 1.895


##########################################################
#                     Channel Switching                  #
##########################################################
*.**.nic.mac1609_4.useServiceChannel = true
*.node[*].appl.dataOnSch = true
*.rsu[*].appl.dataOnSch = true

