<?xml version="1.0" encoding="UTF-8"?>

<!-- generated on Wed Feb 15 15:20:46 2017 by SUMO netconvert Version dev-SVN-r22961
<?xml version="1.0" encoding="UTF-8"?>

<configuration xmlns:xsi="http://www.w3.org/2001/XMLSchema-instance" xsi:noNamespaceSchemaLocation="http://sumo.dlr.de/xsd/netconvertConfiguration.xsd">

    <input>
        <node-files value="data/input_nodes.nod.xml"/>
        <edge-files value="data/input_edges.edg.xml"/>
        <connection-files value="data/input_connections.con.xml"/>
    </input>

    <output>
        <output-file value="data/pasubio_buslanes.net.xml"/>
    </output>

    <processing>
        <roundabouts.guess value="true"/>
        <check-lane-foes.all value="true"/>
    </processing>

    <report>
        <verbose value="true"/>
    </report>

</configuration>
-->

<net version="0.27" xmlns:xsi="http://www.w3.org/2001/XMLSchema-instance" xsi:noNamespaceSchemaLocation="http://sumo.dlr.de/xsd/net_file.xsd">

    <location netOffset="0.00,0.00" convBoundary="0.00,0.00,1827.72,1339.53" origBoundary="0.00,0.00,1827.72,1364.86" projParameter="!"/>

    <edge id=":0_0" function="internal">
        <lane id=":0_0_0" index="0" speed="13.89" length="35.15" shape="413.90,436.51 409.49,429.53 404.19,422.03 398.52,414.81 393.03,408.65"/>
        <lane id=":0_0_1" index="1" speed="13.89" length="35.15" shape="416.59,434.57 412.12,427.52 406.69,419.88 400.89,412.53 395.35,406.29"/>
    </edge>
    <edge id=":0_2" function="internal">
        <lane id=":0_2_0" index="0" speed="13.89" length="20.88" shape="416.59,434.57 413.23,425.28 414.88,417.55 417.15,415.44"/>
    </edge>
    <edge id=":0_16" function="internal">
        <lane id=":0_16_0" index="0" speed="13.89" length="18.54" shape="417.15,415.44 421.54,411.37 433.21,406.74"/>
    </edge>
    <edge id=":0_3" function="internal">
        <lane id=":0_3_0" index="0" speed="13.89" length="40.63" shape="436.88,420.25 398.33,432.60"/>
        <lane id=":0_3_1" index="1" speed="13.89" length="40.63" shape="436.01,417.07 397.32,429.46"/>
        <lane id=":0_3_2" index="2" speed="13.89" length="40.63" shape="435.15,413.88 396.32,426.32"/>
    </edge>
    <edge id=":0_6" function="internal">
        <lane id=":0_6_0" index="0" speed="13.89" length="24.29" shape="435.15,413.88 423.38,416.38 412.82,415.95 411.23,415.38"/>
    </edge>
    <edge id=":0_17" function="internal">
        <lane id=":0_17_0" index="0" speed="13.89" length="18.52" shape="411.23,415.38 403.47,412.59 395.35,406.29"/>
    </edge>
    <edge id=":0_7" function="internal">
        <lane id=":0_7_0" index="0" speed="13.89" length="24.14" shape="410.67,390.73 416.08,394.68 420.22,398.47 424.80,400.81 431.48,400.37"/>
    </edge>
    <edge id=":0_8" function="internal">
        <lane id=":0_8_0" index="0" speed="13.89" length="40.01" shape="410.67,390.73 416.06,397.31 419.79,407.73 422.97,418.77 426.72,427.21"/>
        <lane id=":0_8_1" index="1" speed="13.89" length="40.01" shape="408.27,393.18 413.61,399.68 417.25,409.93 420.34,420.79 424.05,429.15"/>
    </edge>
    <edge id=":0_10" function="internal">
        <lane id=":0_10_0" index="0" speed="13.89" length="40.42" shape="408.27,393.18 420.24,402.17 422.24,410.70 414.27,418.74 409.32,420.83"/>
    </edge>
    <edge id=":0_18" function="internal">
        <lane id=":0_18_0" index="0" speed="13.89" length="14.12" shape="409.32,420.83 396.32,426.32"/>
    </edge>
    <edge id=":0_11" function="internal">
        <lane id=":0_11_0" index="0" speed="13.89" length="5.70" shape="392.01,412.86 393.52,412.12 394.19,411.16 394.03,410.01 393.03,408.65"/>
    </edge>
    <edge id=":0_12" function="internal">
        <lane id=":0_12_0" index="0" speed="13.89" length="41.25" shape="392.01,412.86 431.48,400.37"/>
        <lane id=":0_12_1" index="1" speed="13.89" length="41.25" shape="393.02,416.01 432.34,403.55"/>
        <lane id=":0_12_2" index="2" speed="13.89" length="41.25" shape="394.03,419.15 433.21,406.74"/>
    </edge>
    <edge id=":0_15" function="internal">
        <lane id=":0_15_0" index="0" speed="13.89" length="18.80" shape="394.03,419.15 402.76,417.47 410.67,418.58 412.35,419.50"/>
    </edge>
    <edge id=":0_19" function="internal">
        <lane id=":0_19_0" index="0" speed="13.89" length="15.35" shape="412.35,419.50 417.77,422.47 424.05,429.15"/>
    </edge>
    <edge id=":1_0" function="internal">
        <lane id=":1_0_0" index="0" speed="13.89" length="14.08" shape="927.22,295.13 925.64,292.61 923.11,290.85 919.65,289.84 915.23,289.58"/>
    </edge>
    <edge id=":1_1" function="internal">
        <lane id=":1_1_0" index="0" speed="13.89" length="29.81" shape="930.30,293.95 926.55,285.22 923.19,278.87 920.08,273.40 917.11,267.31"/>
        <lane id=":1_1_1" index="1" speed="13.89" length="29.81" shape="933.38,292.77 929.62,284.00 926.24,277.61 923.12,272.11 920.15,266.01"/>
    </edge>
    <edge id=":1_3" function="internal">
        <lane id=":1_3_0" index="0" speed="13.89" length="5.47" shape="938.89,287.94 937.33,288.24 936.41,288.95 936.12,290.06 936.46,291.59"/>
    </edge>
    <edge id=":1_4" function="internal">
        <lane id=":1_4_0" index="0" speed="13.89" length="23.74" shape="938.83,284.64 915.15,286.28"/>
    </edge>
    <edge id=":1_5" function="internal">
        <lane id=":1_5_0" index="0" speed="13.89" length="25.73" shape="938.77,281.34 933.18,280.61 928.21,277.81 923.86,272.94 920.15,266.01"/>
    </edge>
    <edge id=":1_6" function="internal">
        <lane id=":1_6_0" index="0" speed="13.89" length="13.69" shape="929.63,261.97 931.86,266.17 934.09,269.16 936.34,270.94 938.60,271.51"/>
    </edge>
    <edge id=":1_7" function="internal">
        <lane id=":1_7_0" index="0" speed="13.89" length="30.52" shape="929.63,261.97 933.10,271.68 934.73,280.13 935.53,286.91 936.46,291.59"/>
    </edge>
    <edge id=":1_8" function="internal">
        <lane id=":1_8_0" index="0" speed="13.89" length="13.26" shape="926.59,263.26 929.77,273.13 929.02,279.44"/>
        <lane id=":1_8_1" index="1" speed="13.89" length="13.26" shape="923.56,264.56 926.14,272.46 926.00,273.94"/>
    </edge>
    <edge id=":1_14" function="internal">
        <lane id=":1_14_0" index="0" speed="13.89" length="16.42" shape="929.02,279.44 928.92,280.26 924.05,284.64 915.15,286.28"/>
    </edge>
    <edge id=":1_15" function="internal">
        <lane id=":1_15_0" index="0" speed="13.89" length="16.29" shape="926.00,273.94 925.59,278.17 921.90,281.68 915.07,282.99"/>
    </edge>
    <edge id=":1_10" function="internal">
        <lane id=":1_10_0" index="0" speed="13.89" length="5.54" shape="914.77,270.94 916.37,270.69 917.29,270.00 917.54,268.88 917.11,267.31"/>
    </edge>
    <edge id=":1_11" function="internal">
        <lane id=":1_11_0" index="0" speed="13.89" length="23.82" shape="914.77,270.94 938.60,271.51"/>
        <lane id=":1_11_1" index="1" speed="13.89" length="23.82" shape="914.85,274.24 938.66,274.81"/>
    </edge>
    <edge id=":1_13" function="internal">
        <lane id=":1_13_0" index="0" speed="13.89" length="27.56" shape="914.94,277.54 922.31,278.33 928.35,280.94 933.07,285.36 936.46,291.59"/>
    </edge>
    <edge id=":10_0" function="internal">
        <lane id=":10_0_0" index="0" speed="13.89" length="17.11" shape="803.35,976.21 798.88,975.45 795.73,976.03 792.67,977.60 788.47,979.83"/>
        <lane id=":10_0_1" index="1" speed="13.89" length="17.11" shape="804.23,973.03 799.08,972.11 795.44,972.65 791.90,974.34 787.05,976.85"/>
    </edge>
    <edge id=":10_2" function="internal">
        <lane id=":10_2_0" index="0" speed="13.89" length="12.73" shape="804.23,973.03 796.19,970.55 792.18,968.95"/>
    </edge>
    <edge id=":10_3" function="internal">
        <lane id=":10_3_0" index="0" speed="13.89" length="11.28" shape="804.23,973.03 798.23,970.80 795.71,968.39 796.20,967.07"/>
    </edge>
    <edge id=":10_15" function="internal">
        <lane id=":10_15_0" index="0" speed="13.89" length="9.76" shape="792.18,968.95 790.18,968.14 786.21,965.79 784.28,963.51"/>
    </edge>
    <edge id=":10_16" function="internal">
        <lane id=":10_16_0" index="0" speed="13.89" length="6.60" shape="796.20,967.07 796.68,965.79 801.12,963.02"/>
    </edge>
    <edge id=":10_4" function="internal">
        <lane id=":10_4_0" index="0" speed="13.89" length="18.59" shape="803.90,969.00 787.05,976.85"/>
        <lane id=":10_4_1" index="1" speed="13.89" length="18.59" shape="802.51,966.01 785.64,973.87"/>
    </edge>
    <edge id=":10_6" function="internal">
        <lane id=":10_6_0" index="0" speed="13.89" length="9.97" shape="802.51,966.01 795.94,968.37 792.96,968.58"/>
    </edge>
    <edge id=":10_7" function="internal">
        <lane id=":10_7_0" index="0" speed="13.89" length="2.41" shape="802.51,966.01 801.04,965.78 800.32,965.21"/>
    </edge>
    <edge id=":10_17" function="internal">
        <lane id=":10_17_0" index="0" speed="13.89" length="10.88" shape="792.96,968.58 790.71,968.74 786.82,967.12 784.28,963.51"/>
    </edge>
    <edge id=":10_18" function="internal">
        <lane id=":10_18_0" index="0" speed="13.89" length="2.41" shape="800.32,965.21 800.34,964.29 801.12,963.02"/>
    </edge>
    <edge id=":10_8" function="internal">
        <lane id=":10_8_0" index="0" speed="13.89" length="13.30" shape="787.34,962.27 788.56,963.23 791.03,963.18 794.76,962.11 799.73,960.02"/>
    </edge>
    <edge id=":10_9" function="internal">
        <lane id=":10_9_0" index="0" speed="13.89" length="13.01" shape="787.34,962.27 788.61,966.39 788.75,969.70 787.76,972.19 785.64,973.87"/>
    </edge>
    <edge id=":10_10" function="internal">
        <lane id=":10_10_0" index="0" speed="13.89" length="2.67" shape="787.34,962.27 787.04,963.73 786.43,964.42 786.17,964.40"/>
    </edge>
    <edge id=":10_19" function="internal">
        <lane id=":10_19_0" index="0" speed="13.89" length="2.15" shape="786.17,964.40 785.51,964.35 784.28,963.51"/>
    </edge>
    <edge id=":10_11" function="internal">
        <lane id=":10_11_0" index="0" speed="13.89" length="5.21" shape="782.82,967.90 783.93,967.15 784.54,966.16 784.66,964.95 784.28,963.51"/>
    </edge>
    <edge id=":10_12" function="internal">
        <lane id=":10_12_0" index="0" speed="13.89" length="18.65" shape="782.82,967.90 799.73,960.02"/>
        <lane id=":10_12_1" index="1" speed="13.89" length="18.65" shape="784.23,970.89 801.12,963.02"/>
    </edge>
    <edge id=":10_14" function="internal">
        <lane id=":10_14_0" index="0" speed="13.89" length="2.41" shape="784.23,970.89 785.70,971.10 786.43,971.67"/>
    </edge>
    <edge id=":10_20" function="internal">
        <lane id=":10_20_0" index="0" speed="13.89" length="2.41" shape="786.43,971.67 786.41,972.59 785.64,973.87"/>
    </edge>
    <edge id=":12_0" function="internal">
        <lane id=":12_0_0" index="0" speed="13.89" length="10.49" shape="701.85,1020.85 699.36,1022.60 698.09,1024.45 696.81,1026.27 694.30,1027.97"/>
        <lane id=":12_0_1" index="1" speed="13.89" length="10.49" shape="700.44,1017.87 697.96,1019.61 696.71,1021.45 695.44,1023.27 692.94,1024.96"/>
        <lane id=":12_0_2" index="2" speed="13.89" length="10.49" shape="699.03,1014.88 696.57,1016.62 695.32,1018.45 694.07,1020.27 691.59,1021.95"/>
    </edge>
    <edge id=":12_3" function="internal">
        <lane id=":12_3_0" index="0" speed="13.89" length="6.21" shape="699.03,1014.88 696.16,1015.56 693.55,1014.76 693.16,1014.39"/>
    </edge>
    <edge id=":12_8" function="internal">
        <lane id=":12_8_0" index="0" speed="13.89" length="7.06" shape="693.16,1014.39 691.19,1012.48 689.07,1008.72"/>
    </edge>
    <edge id=":12_4" function="internal">
        <lane id=":12_4_0" index="0" speed="13.89" length="5.03" shape="692.09,1007.39 692.83,1008.56 693.76,1009.21 694.88,1009.33 696.20,1008.92"/>
    </edge>
    <edge id=":12_5" function="internal">
        <lane id=":12_5_0" index="0" speed="13.89" length="13.16" shape="692.09,1007.39 693.46,1011.46 693.60,1014.75 692.53,1017.24 690.24,1018.94"/>
    </edge>
    <edge id=":12_6" function="internal">
        <lane id=":12_6_0" index="0" speed="13.89" length="7.94" shape="688.88,1015.93 689.95,1015.01 690.34,1013.50 690.05,1011.40 689.07,1008.72"/>
    </edge>
    <edge id=":12_7" function="internal">
        <lane id=":12_7_0" index="0" speed="13.89" length="10.31" shape="688.88,1015.93 691.31,1014.28 692.53,1012.47 693.77,1010.64 696.20,1008.92"/>
    </edge>
    <edge id=":13_0" function="internal">
        <lane id=":13_0_0" index="0" speed="13.89" length="0.31" shape="232.67,1215.05 232.75,1215.03 232.81,1215.03 232.88,1215.04 232.96,1215.02"/>
        <lane id=":13_0_1" index="1" speed="13.89" length="0.31" shape="234.01,1218.07 234.10,1218.04 234.17,1218.04 234.24,1218.04 234.33,1218.02"/>
    </edge>
    <edge id=":14_0" function="internal">
        <lane id=":14_0_0" index="0" speed="13.89" length="3.49" shape="307.51,1180.78 310.35,1179.72"/>
        <lane id=":14_0_1" index="1" speed="13.89" length="3.49" shape="308.88,1183.78 311.63,1182.76"/>
        <lane id=":14_0_2" index="2" speed="13.89" length="3.49" shape="308.88,1183.78 312.92,1185.80"/>
    </edge>
    <edge id=":15_0" function="internal">
        <lane id=":15_0_0" index="0" speed="13.89" length="8.29" shape="1356.56,718.46 1355.05,715.85 1353.58,714.17 1352.14,713.42 1350.74,713.58"/>
    </edge>
    <edge id=":15_1" function="internal">
        <lane id=":15_1_0" index="0" speed="13.89" length="16.57" shape="1359.52,716.99 1352.37,702.04"/>
    </edge>
    <edge id=":15_2" function="internal">
        <lane id=":15_2_0" index="0" speed="13.89" length="5.04" shape="1366.90,709.94 1365.73,710.68 1365.09,711.61 1364.99,712.74 1365.43,714.06"/>
    </edge>
    <edge id=":15_3" function="internal">
        <lane id=":15_3_0" index="0" speed="13.89" length="16.67" shape="1366.90,709.94 1362.24,711.45 1358.81,711.74 1355.38,712.04 1350.74,713.58"/>
        <lane id=":15_3_1" index="1" speed="13.89" length="16.67" shape="1365.53,706.93 1360.88,708.44 1357.45,708.73 1354.02,709.04 1349.38,710.58"/>
    </edge>
    <edge id=":15_5" function="internal">
        <lane id=":15_5_0" index="0" speed="13.89" length="7.89" shape="1364.17,703.93 1359.98,705.35 1356.62,705.50 1356.52,705.46"/>
    </edge>
    <edge id=":15_12" function="internal">
        <lane id=":15_12_0" index="0" speed="13.89" length="5.58" shape="1356.52,705.46 1354.08,704.40 1352.37,702.04"/>
    </edge>
    <edge id=":15_6" function="internal">
        <lane id=":15_6_0" index="0" allow="bus" speed="13.89" length="5.25" shape="1358.42,699.41 1359.16,700.57 1360.13,701.21 1361.34,701.30 1362.77,700.86"/>
    </edge>
    <edge id=":15_7" function="internal">
        <lane id=":15_7_0" index="0" speed="13.89" length="16.32" shape="1358.42,699.41 1365.43,714.06"/>
        <lane id=":15_7_1" index="1" speed="13.89" length="16.32" shape="1355.39,700.72 1362.47,715.53"/>
    </edge>
    <edge id=":15_9" function="internal">
        <lane id=":15_9_0" index="0" speed="13.89" length="4.39" shape="1355.39,700.72 1355.99,703.57 1355.55,704.98"/>
    </edge>
    <edge id=":15_13" function="internal">
        <lane id=":15_13_0" index="0" speed="13.89" length="8.60" shape="1355.55,704.98 1355.18,706.16 1352.98,708.50 1349.38,710.58"/>
    </edge>
    <edge id=":15_10" function="internal">
        <lane id=":15_10_0" index="0" speed="13.89" length="7.79" shape="1348.01,707.57 1350.40,706.27 1351.92,704.91 1352.58,703.50 1352.37,702.04"/>
    </edge>
    <edge id=":15_11" function="internal">
        <lane id=":15_11_0" index="0" allow="bus" speed="13.89" length="16.21" shape="1348.01,707.57 1362.77,700.86"/>
    </edge>
    <edge id=":16_0" function="internal">
        <lane id=":16_0_0" index="0" speed="13.89" length="0.34" shape="102.35,653.19 102.73,653.61"/>
        <lane id=":16_0_1" index="1" speed="13.89" length="0.34" shape="99.99,655.50 100.22,655.75"/>
        <lane id=":16_0_2" index="2" speed="13.89" length="0.34" shape="97.63,657.81 97.71,657.89"/>
    </edge>
    <edge id=":17_0" function="internal">
        <lane id=":17_0_0" index="0" speed="13.89" length="5.00" shape="210.78,745.59 209.61,746.30 208.94,747.22 208.79,748.34 209.14,749.66"/>
    </edge>
    <edge id=":17_1" function="internal">
        <lane id=":17_1_0" index="0" speed="13.89" length="4.82" shape="210.78,745.59 209.31,745.32 208.61,744.73 208.66,743.81 209.48,742.56"/>
    </edge>
    <edge id=":17_2" function="internal">
        <lane id=":17_2_0" index="0" speed="13.89" length="8.57" shape="201.44,742.97 202.53,743.83 204.24,744.04 206.55,743.62 209.48,742.56"/>
    </edge>
    <edge id=":17_3" function="internal">
        <lane id=":17_3_0" index="0" speed="13.89" length="10.14" shape="201.44,742.97 203.56,745.14 205.61,746.15 207.49,747.23 209.14,749.66"/>
        <lane id=":17_3_1" index="1" speed="13.89" length="10.14" shape="198.70,744.80 200.72,746.83 202.70,747.71 204.53,748.68 206.10,750.95"/>
    </edge>
    <edge id=":18_0" function="internal">
        <lane id=":18_0_0" index="0" speed="13.89" length="7.88" shape="513.72,619.63 512.76,618.47 511.26,617.99 509.21,618.19 506.62,619.08"/>
    </edge>
    <edge id=":18_1" function="internal">
        <lane id=":18_1_0" index="0" speed="13.89" length="10.42" shape="513.72,619.63 512.07,617.15 510.32,615.78 508.55,614.41 506.88,611.94"/>
    </edge>
    <edge id=":18_2" function="internal">
        <lane id=":18_2_0" index="0" allow="bus" speed="13.89" length="6.38" shape="513.72,619.63 513.03,616.78 513.74,614.26 514.32,613.67"/>
    </edge>
    <edge id=":18_12" function="internal">
        <lane id=":18_12_0" index="0" speed="13.89" length="6.18" shape="514.32,613.67 515.85,612.08 519.36,610.22"/>
    </edge>
    <edge id=":18_3" function="internal">
        <lane id=":18_3_0" index="0" speed="13.89" length="7.09" shape="520.59,613.29 518.40,614.38 517.02,615.57 516.46,616.86 516.72,618.26"/>
    </edge>
    <edge id=":18_4" function="internal">
        <lane id=":18_4_0" index="0" speed="13.89" length="15.12" shape="520.59,613.29 506.62,619.08"/>
    </edge>
    <edge id=":18_5" function="internal">
        <lane id=":18_5_0" index="0" speed="13.89" length="9.18" shape="520.59,613.29 515.60,614.86 511.66,615.15"/>
    </edge>
    <edge id=":18_13" function="internal">
        <lane id=":18_13_0" index="0" speed="13.89" length="5.98" shape="511.66,615.15 508.75,614.18 506.88,611.94"/>
    </edge>
    <edge id=":18_6" function="internal">
        <lane id=":18_6_0" index="0" allow="bus" speed="13.89" length="5.40" shape="515.04,608.11 515.88,609.45 516.89,610.25 518.04,610.51 519.36,610.22"/>
    </edge>
    <edge id=":18_7" function="internal">
        <lane id=":18_7_0" index="0" speed="13.89" length="10.40" shape="515.04,608.11 515.94,611.02 515.92,613.22 515.89,615.41 516.72,618.26"/>
    </edge>
    <edge id=":18_8" function="internal">
        <lane id=":18_8_0" index="0" speed="13.89" length="5.77" shape="512.05,609.51 512.78,612.37 512.12,614.91 511.99,615.06"/>
    </edge>
    <edge id=":18_14" function="internal">
        <lane id=":18_14_0" index="0" speed="13.89" length="6.79" shape="511.99,615.06 510.07,617.15 506.62,619.08"/>
    </edge>
    <edge id=":18_9" function="internal">
        <lane id=":18_9_0" index="0" speed="13.89" length="5.04" shape="505.32,616.04 506.51,615.32 507.16,614.40 507.29,613.27 506.88,611.94"/>
    </edge>
    <edge id=":18_10" function="internal">
        <lane id=":18_10_0" index="0" allow="bus" speed="13.89" length="15.20" shape="505.32,616.04 519.36,610.22"/>
    </edge>
    <edge id=":18_11" function="internal">
        <lane id=":18_11_0" index="0" speed="13.89" length="7.58" shape="505.32,616.04 509.29,614.79 512.51,614.74 512.69,614.83"/>
    </edge>
    <edge id=":18_15" function="internal">
        <lane id=":18_15_0" index="0" speed="13.89" length="5.46" shape="512.69,614.83 514.99,615.90 516.72,618.26"/>
    </edge>
    <edge id=":19_0" function="internal">
        <lane id=":19_0_0" index="0" speed="13.89" length="5.02" shape="611.55,833.06 610.82,831.89 609.90,831.24 608.77,831.11 607.45,831.51"/>
    </edge>
    <edge id=":19_1" function="internal">
        <lane id=":19_1_0" index="0" speed="13.89" length="9.52" shape="611.55,833.06 607.65,824.37"/>
    </edge>
    <edge id=":19_2" function="internal">
        <lane id=":19_2_0" index="0" speed="13.89" length="5.20" shape="611.55,833.06 610.78,830.30 611.08,827.98"/>
    </edge>
    <edge id=":19_9" function="internal">
        <lane id=":19_9_0" index="0" speed="13.89" length="5.16" shape="611.08,827.98 612.46,826.12 614.92,824.70"/>
    </edge>
    <edge id=":19_3" function="internal">
        <lane id=":19_3_0" index="0" speed="13.89" length="5.19" shape="610.65,823.00 611.41,824.18 612.37,824.86 613.55,825.03 614.92,824.70"/>
    </edge>
    <edge id=":19_4" function="internal">
        <lane id=":19_4_0" index="0" speed="13.89" length="9.57" shape="610.65,823.00 614.57,831.73"/>
    </edge>
    <edge id=":19_5" function="internal">
        <lane id=":19_5_0" index="0" speed="13.89" length="5.30" shape="610.65,823.00 611.44,825.70 611.18,828.03 611.10,828.14"/>
    </edge>
    <edge id=":19_10" function="internal">
        <lane id=":19_10_0" index="0" speed="13.89" length="5.06" shape="611.10,828.14 609.85,829.96 607.45,831.51"/>
    </edge>
    <edge id=":19_6" function="internal">
        <lane id=":19_6_0" index="0" speed="13.89" length="5.06" shape="606.06,828.52 607.24,827.76 607.89,826.82 608.03,825.69 607.65,824.37"/>
    </edge>
    <edge id=":19_7" function="internal">
        <lane id=":19_7_0" index="0" speed="13.89" length="9.65" shape="606.06,828.52 614.92,824.70"/>
    </edge>
    <edge id=":19_8" function="internal">
        <lane id=":19_8_0" index="0" speed="13.89" length="10.42" shape="606.06,828.52 608.80,827.69 611.13,827.95 613.06,829.30 614.57,831.73"/>
    </edge>
    <edge id=":2_0" function="internal">
        <lane id=":2_0_0" index="0" speed="13.89" length="6.06" shape="729.45,318.89 728.61,317.25 727.57,316.24 726.33,315.86 724.89,316.11"/>
    </edge>
    <edge id=":2_1" function="internal">
        <lane id=":2_1_0" index="0" speed="13.89" length="10.48" shape="734.64,313.88 731.71,314.43 729.69,314.74 727.70,315.18 724.89,316.11"/>
        <lane id=":2_1_1" index="1" speed="13.89" length="10.48" shape="733.94,310.65 730.88,311.23 728.77,311.57 726.70,312.04 723.75,313.01"/>
        <lane id=":2_1_2" index="2" speed="13.89" length="10.48" shape="733.25,307.42 730.06,308.03 727.85,308.39 725.69,308.89 722.62,309.91"/>
    </edge>
    <edge id=":20_0" function="internal">
        <lane id=":20_0_0" index="0" speed="13.89" length="13.30" shape="440.28,478.01 437.89,475.54 435.30,473.77 432.48,472.24 429.43,470.51"/>
    </edge>
    <edge id=":20_1" function="internal">
        <lane id=":20_1_0" index="0" speed="13.89" length="13.02" shape="440.28,478.01 438.19,475.55 436.31,473.55 434.39,471.25 432.17,467.84"/>
        <lane id=":20_1_1" index="1" speed="13.89" length="13.02" shape="440.28,478.01 438.63,475.28 437.73,472.71 436.79,469.83 435.02,466.18"/>
    </edge>
    <edge id=":21_0" function="internal">
        <lane id=":21_0_0" index="0" speed="13.89" length="0.93" shape="358.12,368.59 358.53,368.54 358.82,368.52 359.10,368.54 359.51,368.60"/>
        <lane id=":21_0_1" index="1" speed="13.89" length="0.93" shape="358.56,371.86 358.69,371.84 358.79,371.84 358.88,371.84 359.01,371.86"/>
    </edge>
    <edge id=":22_0" function="internal">
        <lane id=":22_0_0" index="0" speed="13.89" length="18.53" shape="446.73,446.43 447.31,451.78 447.50,455.52 448.11,459.13 449.95,464.12"/>
        <lane id=":22_0_1" index="1" speed="13.89" length="18.53" shape="443.47,446.94 444.09,452.54 444.32,456.45 444.99,460.23 446.93,465.45"/>
    </edge>
    <edge id=":22_2" function="internal">
        <lane id=":22_2_0" index="0" speed="13.89" length="18.74" shape="440.00,448.10 449.95,464.12"/>
        <lane id=":22_2_1" index="1" speed="13.89" length="18.74" shape="437.09,449.65 446.93,465.45"/>
    </edge>
    <edge id=":23_0" function="internal">
        <lane id=":23_0_0" index="0" speed="13.89" length="6.23" shape="802.50,507.33 801.75,506.15 800.61,505.55 799.07,505.54 797.14,506.10"/>
    </edge>
    <edge id=":23_1" function="internal">
        <lane id=":23_1_0" index="0" speed="13.89" length="13.01" shape="802.50,507.33 801.05,504.22 799.46,501.59 797.86,498.96 796.41,495.85"/>
    </edge>
    <edge id=":23_2" function="internal">
        <lane id=":23_2_0" index="0" speed="13.89" length="12.03" shape="802.50,507.33 801.28,503.23 801.04,500.05 801.78,497.79 803.51,496.45"/>
    </edge>
    <edge id=":23_3" function="internal">
        <lane id=":23_3_0" index="0" speed="13.89" length="9.49" shape="804.73,499.51 795.91,503.03"/>
    </edge>
    <edge id=":23_4" function="internal">
        <lane id=":23_4_0" index="0" speed="13.89" length="5.20" shape="804.73,499.51 801.95,500.19 799.63,499.80"/>
    </edge>
    <edge id=":23_10" function="internal">
        <lane id=":23_10_0" index="0" speed="13.89" length="5.20" shape="799.63,499.80 797.79,498.35 796.41,495.85"/>
    </edge>
    <edge id=":23_5" function="internal">
        <lane id=":23_5_0" index="0" speed="13.89" length="5.02" shape="799.49,494.68 800.16,495.89 801.05,496.59 802.16,496.77 803.51,496.45"/>
    </edge>
    <edge id=":23_6" function="internal">
        <lane id=":23_6_0" index="0" speed="13.89" length="10.32" shape="799.49,494.68 800.12,497.46 799.73,499.77 798.33,501.63 795.91,503.03"/>
    </edge>
    <edge id=":23_7" function="internal">
        <lane id=":23_7_0" index="0" speed="13.89" length="4.82" shape="799.49,494.68 799.16,496.13 798.53,496.81 797.62,496.71 796.41,495.85"/>
    </edge>
    <edge id=":23_8" function="internal">
        <lane id=":23_8_0" index="0" speed="13.89" length="5.07" shape="794.68,499.97 795.86,499.29 796.54,498.37 796.72,497.22 796.41,495.85"/>
    </edge>
    <edge id=":23_9" function="internal">
        <lane id=":23_9_0" index="0" speed="13.89" length="9.50" shape="794.68,499.97 803.51,496.45"/>
    </edge>
    <edge id=":24_0" function="internal">
        <lane id=":24_0_0" index="0" speed="13.89" length="1.13" shape="486.43,887.68 486.13,887.83 485.94,887.97 485.80,888.15 485.65,888.45"/>
    </edge>
    <edge id=":24_1" function="internal">
        <lane id=":24_1_0" index="0" speed="13.89" length="3.47" shape="482.66,887.05 483.12,886.14 483.55,885.56 484.13,885.14 485.04,884.69"/>
    </edge>
    <edge id=":24_2" function="internal">
        <lane id=":24_2_0" index="0" speed="13.89" length="2.84" shape="482.66,887.05 483.94,886.28 484.86,886.26 485.13,886.59"/>
    </edge>
    <edge id=":24_3" function="internal">
        <lane id=":24_3_0" index="0" speed="13.89" length="1.98" shape="485.13,886.59 485.43,886.98 485.65,888.45"/>
    </edge>
    <edge id=":26_0" function="internal">
        <lane id=":26_0_0" index="0" speed="13.89" length="4.82" shape="714.81,792.50 715.10,791.05 715.71,790.35 716.63,790.43 717.86,791.26"/>
    </edge>
    <edge id=":26_1" function="internal">
        <lane id=":26_1_0" index="0" speed="13.89" length="4.90" shape="719.39,787.16 718.30,787.92 717.69,788.86 717.54,789.97 717.86,791.26"/>
    </edge>
    <edge id=":26_2" function="internal">
        <lane id=":26_2_0" index="0" speed="13.89" length="7.51" shape="709.27,787.08 712.03,786.45 714.38,786.94 716.14,788.38"/>
    </edge>
    <edge id=":26_3" function="internal">
        <lane id=":26_3_0" index="0" speed="13.89" length="3.37" shape="716.14,788.38 716.33,788.54 717.86,791.26"/>
    </edge>
    <edge id=":26.-170_0" function="internal">
        <lane id=":26.-170_0_0" index="0" speed="13.89" length="3.00" shape="672.99,552.26 670.21,553.37"/>
    </edge>
    <edge id=":27_0" function="internal">
        <lane id=":27_0_0" index="0" speed="13.89" length="7.03" shape="958.63,898.91 956.71,899.25 955.25,898.69 953.79,898.13 951.88,898.48"/>
        <lane id=":27_0_1" index="1" speed="13.89" length="7.03" shape="957.21,895.93 955.29,896.27 953.82,895.71 952.36,895.16 950.44,895.51"/>
    </edge>
    <edge id=":27_2" function="internal">
        <lane id=":27_2_0" index="0" speed="13.89" length="2.81" shape="955.80,892.95 954.23,893.03 953.24,892.29"/>
    </edge>
    <edge id=":27_5" function="internal">
        <lane id=":27_5_0" index="0" speed="13.89" length="8.02" shape="953.24,892.29 952.60,891.81 950.91,889.30 949.15,885.49"/>
    </edge>
    <edge id=":27_3" function="internal">
        <lane id=":27_3_0" index="0" speed="13.89" length="4.92" shape="947.57,889.57 948.68,888.82 949.31,887.89 949.47,886.78 949.15,885.49"/>
    </edge>
    <edge id=":27_4" function="internal">
        <lane id=":27_4_0" index="0" allow="bus" speed="13.89" length="5.97" shape="949.01,892.54 954.39,889.97"/>
    </edge>
    <edge id=":28_0" function="internal">
        <lane id=":28_0_0" index="0" speed="13.89" length="6.24" shape="878.99,710.21 876.73,704.40"/>
    </edge>
    <edge id=":28_1" function="internal">
        <lane id=":28_1_0" index="0" speed="13.89" length="1.59" shape="880.78,706.09 879.43,706.47 879.24,706.45"/>
    </edge>
    <edge id=":28_2" function="internal">
        <lane id=":28_2_0" index="0" speed="13.89" length="3.48" shape="879.24,706.45 878.31,706.32 877.41,705.63 876.73,704.40"/>
    </edge>
    <edge id=":29_0" function="internal">
        <lane id=":29_0_0" index="0" speed="13.89" length="10.11" shape="1150.51,804.49 1148.12,806.14 1146.95,807.93 1145.78,809.73 1143.41,811.42"/>
        <lane id=":29_0_1" index="1" speed="13.89" length="10.11" shape="1149.14,801.49 1146.75,803.14 1145.56,804.93 1144.38,806.74 1142.00,808.43"/>
    </edge>
    <edge id=":29_2" function="internal">
        <lane id=":29_2_0" index="0" speed="13.89" length="5.26" shape="1149.14,801.49 1146.36,802.30 1144.02,802.00"/>
    </edge>
    <edge id=":29_7" function="internal">