<routes xmlns:xsi="http://www.w3.org/2001/XMLSchema-instance" xsi:noNamespaceSchemaLocation="http://sumo.dlr.de/xsd/routes_file.xsd">
   <vType id="SUMO_DEFAULT_TYPE" accel="0.8" decel="4.5" sigma="0" length="5" minGap="2" maxSpeed="70"/>
   <route id="horizontal" edges="1i"/>
   <flow id="horizontal" type="SUMO_DEFAULT_TYPE" route="horizontal" begin="0" end="900" period="30"/>
</routes>
